example/SUC_model.pdb
 OpenBabel09211815233D

 45 46  0  0  1  0  0  0  0  0999 V2000
   14.1090  -17.6150   31.4370 C   0  0  1  0  0  0  0  0  0  0  0  0
   15.4860  -17.6950   30.7800 C   0  0  1  0  0  0  0  0  0  0  0  0
   15.6380  -19.0300   30.0460 C   0  0  2  0  0  0  0  0  0  0  0  0
   15.3300  -20.2190   30.9910 C   0  0  1  0  0  0  0  0  0  0  0  0
   13.9640  -19.9970   31.6630 C   0  0  1  0  0  0  0  0  0  0  0  0
   13.4500  -21.0660   32.6310 C   0  0  0  0  0  0  0  0  0  0  0  0
   13.1130  -17.5670   30.4420 O   0  0  0  0  0  0  0  0  0  0  0  0
   15.6410  -16.6250   29.8630 O   0  0  0  0  0  0  0  0  0  0  0  0
   16.9570  -19.1360   29.5370 O   0  0  0  0  0  0  0  0  0  0  0  0
   15.2900  -21.4270   30.2390 O   0  0  0  0  0  0  0  0  0  0  0  0
   13.9330  -18.7190   32.3440 O   0  0  0  0  0  0  0  0  0  0  0  0
   14.2580  -21.1570   33.7920 O   0  0  0  0  0  0  0  0  0  0  0  0
   12.4230  -15.2490   30.1180 C   0  0  0  0  0  0  0  0  0  0  0  0
   12.0610  -16.6270   30.6410 C   0  0  1  0  0  0  0  0  0  0  0  0
   10.7970  -17.1430   29.9610 C   0  0  2  0  0  0  0  0  0  0  0  0
   10.2910  -18.1110   31.0020 C   0  0  1  0  0  0  0  0  0  0  0  0
   10.5250  -17.2870   32.2810 C   0  0  1  0  0  0  0  0  0  0  0  0
   10.8400  -18.1400   33.4910 C   0  0  0  0  0  0  0  0  0  0  0  0
   11.3590  -14.3400   30.3860 O   0  0  0  0  0  0  0  0  0  0  0  0
   11.7170  -16.5090   32.0040 O   0  0  0  0  0  0  0  0  0  0  0  0
   11.1330  -17.8320   28.7600 O   0  0  0  0  0  0  0  0  0  0  0  0
    8.8940  -18.3250   30.8300 O   0  0  0  0  0  0  0  0  0  0  0  0
   10.7010  -17.3580   34.6680 O   0  0  0  0  0  0  0  0  0  0  0  0
   14.0230  -16.6800   32.0390 H   0  0  0  0  0  0  0  0  0  0  0  0
   16.2700  -17.6210   31.5680 H   0  0  0  0  0  0  0  0  0  0  0  0
   14.9080  -19.0640   29.2030 H   0  0  0  0  0  0  0  0  0  0  0  0
   16.1250  -20.2880   31.7690 H   0  0  0  0  0  0  0  0  0  0  0  0
   13.2690  -20.0490   30.7920 H   0  0  0  0  0  0  0  0  0  0  0  0
   12.3790  -20.8950   32.8930 H   0  0  0  0  0  0  0  0  0  0  0  0
   13.3500  -22.0550   32.1270 H   0  0  0  0  0  0  0  0  0  0  0  0
   16.4970  -16.6740   29.4540 H   0  0  0  0  0  0  0  0  0  0  0  0
   17.0510  -19.9640   29.0810 H   0  0  0  0  0  0  0  0  0  0  0  0
   15.1010  -22.1550   30.8180 H   0  0  0  0  0  0  0  0  0  0  0  0
   13.9390  -21.8200   34.3920 H   0  0  0  0  0  0  0  0  0  0  0  0
   13.3960  -14.8870   30.5240 H   0  0  0  0  0  0  0  0  0  0  0  0
   12.6970  -15.2680   29.0370 H   0  0  0  0  0  0  0  0  0  0  0  0
   10.0650  -16.3540   29.6670 H   0  0  0  0  0  0  0  0  0  0  0  0
   10.7740  -19.1150   30.9820 H   0  0  0  0  0  0  0  0  0  0  0  0
    9.6060  -16.6980   32.5130 H   0  0  0  0  0  0  0  0  0  0  0  0
   10.2220  -19.0670   33.5250 H   0  0  0  0  0  0  0  0  0  0  0  0
   11.8430  -18.6190   33.4190 H   0  0  0  0  0  0  0  0  0  0  0  0
   11.5850  -13.4770   30.0580 H   0  0  0  0  0  0  0  0  0  0  0  0
   10.3450  -18.1530   28.3360 H   0  0  0  0  0  0  0  0  0  0  0  0
    8.5750  -18.9340   31.4850 H   0  0  0  0  0  0  0  0  0  0  0  0
   10.8980  -17.8930   35.4270 H   0  0  0  0  0  0  0  0  0  0  0  0
  1  2  1  0  0  0  0
  1  7  1  0  0  0  0
  1 11  1  0  0  0  0
  1 24  1  1  0  0  0
  2  3  1  0  0  0  0
  2  8  1  0  0  0  0
  2 25  1  1  0  0  0
  3  4  1  0  0  0  0
  3  9  1  0  0  0  0
  3 26  1  6  0  0  0
  4  5  1  0  0  0  0
  4 10  1  0  0  0  0
  4 27  1  1  0  0  0
  5  6  1  0  0  0  0
  5 11  1  0  0  0  0
  5 28  1  6  0  0  0
  6 12  1  0  0  0  0
  6 29  1  0  0  0  0
  6 30  1  0  0  0  0
  8 31  1  0  0  0  0
  9 32  1  0  0  0  0
 10 33  1  0  0  0  0
 12 34  1  0  0  0  0
 13 14  1  0  0  0  0
 13 19  1  0  0  0  0
 13 35  1  0  0  0  0
 13 36  1  0  0  0  0
 14  7  1  6  0  0  0
 14 15  1  0  0  0  0
 14 20  1  0  0  0  0
 15 16  1  0  0  0  0
 15 21  1  0  0  0  0
 15 37  1  6  0  0  0
 16 17  1  0  0  0  0
 16 22  1  0  0  0  0
 16 38  1  1  0  0  0
 17 18  1  0  0  0  0
 17 20  1  0  0  0  0
 17 39  1  1  0  0  0
 18 23  1  0  0  0  0
 18 40  1  0  0  0  0
 18 41  1  0  0  0  0
 19 42  1  0  0  0  0
 21 43  1  0  0  0  0
 22 44  1  0  0  0  0
 23 45  1  0  0  0  0
M  END
$$$$
