C3H12N2
APtclcactv08081817083D 0   0.00000     0.00000
 
 17 16  0  0  0  0  0  0  0  0999 V2000
    0.0000   -0.3424   -0.0000 C   0  0  0  0  0  0  0  0  0  0  0  0
   -1.2492    0.5409   -0.0000 C   0  0  0  0  0  0  0  0  0  0  0  0
    1.2492    0.5409    0.0000 C   0  0  0  0  0  0  0  0  0  0  0  0
   -2.4487   -0.3072    0.0000 N   0  3  0  0  0  0  0  0  0  0  0  0
    2.4487   -0.3072   -0.0000 N   0  3  0  0  0  0  0  0  0  0  0  0
   -0.0000   -0.9717    0.8900 H   0  0  0  0  0  0  0  0  0  0  0  0
    0.0000   -0.9717   -0.8900 H   0  0  0  0  0  0  0  0  0  0  0  0
   -1.2492    1.1702    0.8900 H   0  0  0  0  0  0  0  0  0  0  0  0
   -1.2492    1.1702   -0.8900 H   0  0  0  0  0  0  0  0  0  0  0  0
    1.2492    1.1702   -0.8900 H   0  0  0  0  0  0  0  0  0  0  0  0
    1.2492    1.1702    0.8900 H   0  0  0  0  0  0  0  0  0  0  0  0
   -2.4487   -0.8897   -0.8238 H   0  0  0  0  0  0  0  0  0  0  0  0
   -2.4487   -0.8897    0.8238 H   0  0  0  0  0  0  0  0  0  0  0  0
   -3.2725    0.2753    0.0000 H   0  0  0  0  0  0  0  0  0  0  0  0
    2.4487   -0.8897    0.8238 H   0  0  0  0  0  0  0  0  0  0  0  0
    2.4487   -0.8897   -0.8238 H   0  0  0  0  0  0  0  0  0  0  0  0
    3.2725    0.2753   -0.0000 H   0  0  0  0  0  0  0  0  0  0  0  0
  1  2  1  0  0  0  0
  1  3  1  0  0  0  0
  2  4  1  0  0  0  0
  3  5  1  0  0  0  0
  1  6  1  0  0  0  0
  1  7  1  0  0  0  0
  2  8  1  0  0  0  0
  2  9  1  0  0  0  0
  3 10  1  0  0  0  0
  3 11  1  0  0  0  0
  4 12  1  0  0  0  0
  4 13  1  0  0  0  0
  4 14  1  0  0  0  0
  5 15  1  0  0  0  0
  5 16  1  0  0  0  0
  5 17  1  0  0  0  0
M  CHG  2   4   1   5   1
M  END
$$$$

